src/tests/data/grids/ucte/germanTsos.uct
##C 2007.05.01
Generated by powsybl, 2019.09.23 17:47
Case date: 2019.09.24 19:30
Test case for german region import in PowSyBl core package
##N
##ZBE
BAVLGM11 AVLGM1_1     0 0        0.00000 0.00000 0.00000 0.00000
##ZDE
D4NEUR11 NEUROTT      0 0        0.00000 0.00000 0.00000 0.00000
DJA_KA11 DE-DK        0 0        0.00000 0.00000 0.00000 0.00000
DEA_KA11 DE-DK        0 0        0.00000 0.00000 0.00000 0.00000
##L
##T
##R
